Version 4
SHEET 1 1524 1008
WIRE -768 -288 -768 -320
WIRE 1232 -208 1168 -208
WIRE -768 -176 -768 -208
WIRE 624 -176 560 -176
WIRE 1168 -176 1168 -208
WIRE 1232 -176 1232 -208
WIRE 560 -144 560 -176
WIRE 624 -144 624 -176
WIRE 32 -128 -48 -128
WIRE -48 -112 -48 -128
WIRE 32 -96 32 -128
WIRE -768 -32 -768 -96
WIRE 1168 -32 1168 -96
WIRE 1072 -16 1024 -16
WIRE 560 0 560 -64
WIRE 1024 0 1024 -16
WIRE 464 16 432 16
WIRE 1072 16 1072 -16
WIRE 1104 16 1072 16
WIRE -48 32 -48 -32
WIRE 432 32 432 16
WIRE -144 48 -208 48
WIRE 464 48 464 16
WIRE 496 48 464 48
WIRE 1328 48 1328 0
WIRE 1328 48 1216 48
WIRE 1456 48 1328 48
WIRE -208 64 -208 48
WIRE -144 80 -144 48
WIRE -112 80 -144 80
WIRE 688 80 688 32
WIRE 688 80 608 80
WIRE 800 80 688 80
WIRE 960 80 880 80
WIRE 1104 80 960 80
WIRE 80 112 80 64
WIRE 80 112 0 112
WIRE 160 112 80 112
WIRE 336 112 240 112
WIRE 496 112 336 112
WIRE -768 144 -768 48
WIRE -624 144 -768 144
WIRE -400 144 -544 144
WIRE -112 144 -400 144
WIRE 1168 192 1168 128
WIRE 560 208 560 160
WIRE -48 240 -48 192
WIRE 1168 304 1168 272
WIRE 560 320 560 288
WIRE -48 352 -48 320
WIRE 960 448 960 80
WIRE 1104 448 960 448
WIRE 1328 448 1328 48
WIRE 1328 448 1184 448
WIRE -400 480 -400 144
WIRE -192 480 -400 480
WIRE 80 480 80 112
WIRE 80 480 -128 480
WIRE 336 480 336 112
WIRE 480 480 336 480
WIRE 688 480 688 80
WIRE 688 480 544 480
WIRE -400 640 -400 480
WIRE -208 640 -400 640
WIRE 80 640 80 480
WIRE 80 640 -128 640
WIRE -400 816 -400 640
WIRE 512 816 -400 816
WIRE 1456 816 1456 48
WIRE 1456 816 592 816
FLAG -208 64 0
FLAG 432 32 0
FLAG 1024 0 0
FLAG 32 -96 0
FLAG -48 352 0
FLAG 560 320 0
FLAG 624 -144 0
FLAG 1232 -176 0
FLAG 1168 304 0
FLAG -768 -320 0
FLAG 80 64 vo1
FLAG 688 32 vo2
FLAG 1328 0 vo3
FLAG -768 144 vi
SYMBOL AutoGenerated\\LM741 -96 112 R0
SYMATTR InstName U1
SYMBOL AutoGenerated\\LM741 512 80 R0
SYMATTR InstName U2
SYMBOL AutoGenerated\\LM741 1120 48 R0
SYMATTR InstName U3
SYMBOL voltage -48 -16 R180
WINDOW 0 24 96 Left 2
WINDOW 3 24 16 Left 2
SYMATTR InstName V1
SYMATTR Value 12
SYMBOL voltage -48 336 R180
WINDOW 0 24 96 Left 2
WINDOW 3 24 16 Left 2
SYMATTR InstName V2
SYMATTR Value 12
SYMBOL voltage 560 304 R180
WINDOW 0 24 96 Left 2
WINDOW 3 24 16 Left 2
SYMATTR InstName V3
SYMATTR Value 12
SYMBOL voltage 1168 288 R180
WINDOW 0 24 96 Left 2
WINDOW 3 24 16 Left 2
SYMATTR InstName V4
SYMATTR Value 12
SYMBOL voltage 1168 -80 R180
WINDOW 0 24 96 Left 2
WINDOW 3 24 16 Left 2
SYMATTR InstName V5
SYMATTR Value 12
SYMBOL voltage 560 -48 R180
WINDOW 0 24 96 Left 2
WINDOW 3 24 16 Left 2
SYMATTR InstName V6
SYMATTR Value 12
SYMBOL voltage -768 64 R180
WINDOW 123 24 124 Left 2
WINDOW 39 0 0 Left 0
SYMATTR InstName V7
SYMATTR Value SINE(0 1 500)
SYMATTR Value2 AC 1
SYMBOL voltage -768 -80 R180
WINDOW 123 0 0 Left 0
WINDOW 39 0 0 Left 0
SYMATTR InstName X2
SYMATTR Value SINE(0 1 2k)
SYMBOL voltage -768 -192 R180
WINDOW 123 0 0 Left 0
WINDOW 39 0 0 Left 0
SYMATTR InstName X3
SYMATTR Value SINE(0 1 10k)
SYMBOL res -528 128 R90
WINDOW 0 0 56 VBottom 2
WINDOW 3 32 56 VTop 2
SYMATTR InstName R4
SYMATTR Value 79.5k
SYMBOL cap -128 464 R90
WINDOW 0 0 32 VBottom 2
WINDOW 3 32 32 VTop 2
SYMATTR InstName C1
SYMATTR Value 10n
SYMBOL res -112 624 R90
WINDOW 0 0 56 VBottom 2
WINDOW 3 32 56 VTop 2
SYMATTR InstName R1
SYMATTR Value 79.5k
SYMBOL res 256 96 R90
WINDOW 0 0 56 VBottom 2
WINDOW 3 32 56 VTop 2
SYMATTR InstName R2
SYMATTR Value 7.9k
SYMBOL cap 544 464 R90
WINDOW 0 0 32 VBottom 2
WINDOW 3 32 32 VTop 2
SYMATTR InstName C2
SYMATTR Value 10n
SYMBOL res 608 800 R90
WINDOW 0 0 56 VBottom 2
WINDOW 3 32 56 VTop 2
SYMATTR InstName R3
SYMATTR Value 7.9k
SYMBOL res 896 64 R90
WINDOW 0 0 56 VBottom 2
WINDOW 3 32 56 VTop 2
SYMATTR InstName R5
SYMATTR Value 10k
SYMBOL res 1200 432 R90
WINDOW 0 0 56 VBottom 2
WINDOW 3 32 56 VTop 2
SYMATTR InstName R6
SYMATTR Value 10k
TEXT -896 696 Left 2 !.ac dec 200 1 200k\n; .tran 0 0.1 0.02 1u\n; .options plotwinsize=0
