Version 4
SHEET 1 980 716
WIRE 128 -160 64 -160
WIRE 64 -128 64 -160
WIRE 128 -128 128 -160
WIRE 336 -48 256 -48
WIRE 256 -32 256 -48
WIRE 336 0 336 -48
WIRE 256 80 256 48
WIRE -416 128 -560 128
WIRE -224 128 -336 128
WIRE -128 128 -224 128
WIRE 64 128 64 -64
WIRE 64 128 -48 128
WIRE 192 128 64 128
WIRE 400 160 304 160
WIRE 544 160 400 160
WIRE 672 160 544 160
WIRE 192 192 64 192
WIRE -560 208 -560 128
WIRE 256 272 256 240
WIRE -560 368 -560 288
WIRE 256 416 256 352
WIRE 64 464 64 192
WIRE 400 464 400 160
WIRE 400 464 64 464
WIRE -560 512 -560 448
WIRE -224 608 -224 128
WIRE 208 608 -224 608
WIRE 544 608 544 160
WIRE 544 608 272 608
WIRE -560 656 -560 592
FLAG 256 416 0
FLAG 336 0 0
FLAG 128 -128 0
FLAG -560 656 0
FLAG 672 160 vo
FLAG -560 128 vi
SYMBOL AutoGenerated\\LM741 208 160 R0
SYMATTR InstName U1
SYMBOL voltage 256 64 R180
WINDOW 0 24 96 Left 2
WINDOW 3 24 16 Left 2
SYMATTR InstName V1
SYMATTR Value 12
SYMBOL voltage 256 368 R180
WINDOW 0 24 96 Left 2
WINDOW 3 24 16 Left 2
SYMATTR InstName V2
SYMATTR Value 12
SYMBOL res -320 112 R90
WINDOW 0 0 56 VBottom 2
WINDOW 3 32 56 VTop 2
SYMATTR InstName R1
SYMATTR Value 22k
SYMBOL res -32 112 R90
WINDOW 0 0 56 VBottom 2
WINDOW 3 32 56 VTop 2
SYMATTR InstName R2
SYMATTR Value 22k
SYMBOL cap 80 -64 R180
WINDOW 0 24 56 Left 2
WINDOW 3 24 8 Left 2
SYMATTR InstName C4
SYMATTR Value 7.07n
SYMBOL cap 208 624 R270
WINDOW 0 32 32 VTop 2
WINDOW 3 0 32 VBottom 2
SYMATTR InstName C3
SYMATTR Value 14.14n
SYMBOL voltage -560 496 R0
WINDOW 123 0 0 Left 0
WINDOW 39 0 0 Left 0
SYMATTR InstName X3
SYMATTR Value SINE(0 1 10000 0 0 0)
SYMBOL voltage -560 352 R0
WINDOW 123 0 0 Left 0
WINDOW 39 0 0 Left 0
SYMATTR InstName X2
SYMATTR Value SINE(0 1 2000 0 0 0)
SYMBOL voltage -560 192 R0
WINDOW 123 24 124 Left 2
WINDOW 39 0 0 Left 0
SYMATTR InstName X1
SYMATTR Value SINE(0 1 500 0 0 0)
SYMATTR Value2 AC 1
TEXT 696 600 Left 2 !.ac dec 200 1 200k\n; .tran 0 0.1 0.02 1u\n; .options plotwinsize=0
